.subckt stage in out params: rval=10 cval=1p
R1 in out rval
C1 out 0 cval
.ends