.subckt delay_leaf in out params: z0=50 td=3p rval=50
T1 in 0 out 0 z0=z0 td=td
R1 out 0 rval
.ends