.title include-chain-source-pwl-jj-subckt-smoke
.include "include_chain_source_pwl_jj_defs.inc"
X1 0 source_pwl_jj_stage params: stage_r=10
.tran 1p 8p
.end